61
-2.7492709522025825e+03 frame 35   xyz file generated by TeraChem
    Fe    -0.0114561848    0.0149559720   -0.0101003506
     N     0.5035158881    1.6485495716    0.9696522835
     C     1.1608600890    1.6969204246    2.1538007563
     C     1.5473421996    2.8994895232    2.7411880370
     C     1.2523054677    4.1006189230    2.0866462143
     C     0.5731106053    4.0580572355    0.8676220945
     C     0.2060345199    2.8225828455    0.3254917071
     C    -0.5232172712    2.6457007967   -0.9332631788
     C    -1.0058758835    3.6882955792   -1.7300543994
     C    -1.6989699788    3.3924153474   -2.9055752371
     C    -1.8969142358    2.0525770361   -3.2575055852
     C    -1.3953586441    1.0540091425   -2.4259737379
     N    -0.7166338227    1.3344594836   -1.2868160618
     H    -1.5185621983    0.0078519252   -2.6619265458
     H    -2.4304740695    1.7843667113   -4.1604544527
     H    -2.0791286582    4.1902542307   -3.5317289558
     H    -0.8499497261    4.7184614686   -1.4384341184
     H     0.3363906926    4.9766951586    0.3473010791
     H     1.5440111455    5.0506686267    2.5172900036
     H     2.0686463493    2.8924123939    3.6899083633
     H     1.3636322387    0.7473456213    2.6250195468
     N    -1.8044201193   -0.1075731692    0.8125777236
     C    -2.3251298759    0.7574325585    1.7174243598
     C    -3.6239661922    0.6313929088    2.2051108824
     C    -4.4241420310   -0.4198214094    1.7450395161
     C    -3.8964682278   -1.3109781366    0.8087793444
     C    -2.5861750009   -1.1364940848    0.3527525825
     C    -1.9247133802   -1.9964827304   -0.6316651627
     C    -2.4876909248   -3.1501937893   -1.1862400754
     C    -1.7610386190   -3.8891730870   -2.1214214841
     C    -0.4807970168   -3.4546627497   -2.4820630333
     C     0.0318533930   -2.2990591964   -1.8964004679
     N    -0.6698919656   -1.5759637757   -0.9898165096
     H     1.0149664160   -1.9329691712   -2.1523891896
     H     0.1121713765   -4.0006604377   -3.2047465132
     H    -2.1840327502   -4.7854903490   -2.5582325690
     H    -3.4771189491   -3.4724466436   -0.8904684458
     H    -4.5027268200   -2.1258855690    0.4359472702
     H    -5.4382603459   -0.5416904873    2.1053420856
     H    -3.9978973057    1.3438397732    2.9293667189
     H    -1.6776443037    1.5520273407    2.0549849050
     N     0.8380187841   -1.2288576032    1.2798525822
     C     0.2246090725   -1.8430129145    2.3214034567
     C     0.8832167888   -2.7625666805    3.1347635013
     C     2.2218038356   -3.0696196512    2.8681766515
     C     2.8583900799   -2.4429983330    1.7954799294
     C     2.1497523582   -1.5252654147    1.0135768884
     C     2.7069675693   -0.8054572755   -0.1344485246
     C     4.0420508475   -0.8760757753   -0.5442159839
     C     4.4603493230   -0.1475315098   -1.6590781704
     C     3.5274151014    0.6405018153   -2.3413288313
     C     2.2111298282    0.6774184161   -1.8868724908
     N     1.7963603009   -0.0307652117   -0.8072363880
     H     1.4654540648    1.2749759782   -2.3887407785
     H     3.8127628331    1.2201419244   -3.2099642175
     H     5.4917193126   -0.1924521873   -1.9867242100
     H     4.7506225932   -1.4854975062    0.0006647176
     H     3.8912829558   -2.6727716391    1.5701964604
     H     2.7584353999   -3.7831867319    3.4813146194
     H     0.3558080976   -3.2275433496    3.9579382390
     H    -0.8075671326   -1.5812878062    2.4994866667
