%Chk=Pb_complex_small_opt.chk
%Mem=3000MB
%NProcShared=2
# B3LYP/6-31G* Geom=PrintInputOrient Integral=(Grid=UltraFine) Opt
 
CLR
 
2  1
Pb         -1.785    0.363   -1.461
N          -1.673    3.073   -0.663
N          -2.253   -2.364   -2.514
C          -1.270    3.015    0.751
C           0.026    2.262    0.981
H          -2.058    2.506    1.324
H          -1.163    4.031    1.180
O          -0.145    0.907    0.557
H           0.270    2.285    2.057
H           0.874    2.718    0.442
C           0.999    0.074    0.742
C           0.583   -1.363    0.538
H           1.398    0.195    1.763
H           1.789    0.359    0.024
O          -0.032   -1.481   -0.749
H          -0.129   -1.680    1.321
H           1.475   -2.009    0.598
C          -0.088   -2.813   -1.268
C          -0.850   -2.827   -2.576
H          -0.534   -3.489   -0.518
H           0.937   -3.174   -1.463
H          -0.799   -3.862   -2.970
H          -0.324   -2.183   -3.294
C          -3.100   -3.143   -1.594
C          -3.175   -2.576   -0.176
H          -2.771   -4.198   -1.522
H          -4.117   -3.176   -2.010
O          -3.505   -1.188   -0.141
H          -2.218   -2.654    0.352
H          -3.919   -3.151    0.403
C          -4.834   -0.848   -0.530
C          -5.088    0.578   -0.107
H          -5.561   -1.512   -0.033
H          -4.964   -0.959   -1.623
O          -4.088    1.417   -0.685
H          -5.041    0.658    0.994
H          -6.090    0.898   -0.445
C          -4.149    2.765   -0.217
C          -3.046    3.594   -0.842
H          -4.103    2.768    0.886
H          -5.117    3.211   -0.505
H          -3.138    4.620   -0.432
H          -3.229    3.662   -1.924
C          -0.724    3.860   -1.490
C           0.165    3.013   -2.387
H          -0.090    4.507   -0.858
H          -1.300    4.534   -2.140
O          -0.684    2.170   -3.159
H           0.886    2.398   -1.815
H           0.749    3.680   -3.045
C          -0.127    1.623   -4.352
C          -1.225    0.835   -5.025
H           0.735    0.973   -4.113
H           0.222    2.430   -5.020
O          -1.630   -0.194   -4.123
H          -0.856    0.392   -5.966
H          -2.075    1.501   -5.255
C          -2.866   -0.846   -4.412
C          -2.798   -2.274   -3.891
H          -3.695   -0.283   -3.939
H          -3.057   -0.859   -5.498
H          -3.811   -2.698   -3.928
H          -2.188   -2.881   -4.580
 
 
