21
Coordinates from ORCA-job FeCP2_plus2_small_opt.orca E -510.120970315429
  Fe     -5.819000     -3.840000     -1.541000
  H      -5.319000     -1.444000     -2.947000
  C      -5.551000     -1.830000     -1.964000
  H      -7.792000     -1.867000     -1.953000
  H      -3.528000     -2.254000     -1.097000
  C      -6.859000     -2.056000     -1.439000
  C      -4.603000     -2.258000     -0.985000
  C      -6.721000     -2.624000     -0.135000
  C      -5.326000     -2.747000      0.146000
  H      -7.530000     -2.941000      0.509000
  H      -4.893000     -3.176000      1.039000
  H      -4.894000     -4.504000     -4.123000
  C      -5.325000     -4.933000     -3.229000
  H      -7.529000     -4.745000     -3.590000
  H      -3.524000     -5.421000     -1.988000
  C      -6.719000     -5.060000     -2.947000
  C      -4.600000     -5.419000     -2.099000
  C      -6.855000     -5.627000     -1.643000
  C      -5.545000     -5.850000     -1.119000
  H      -7.786000     -5.818000     -1.127000
  H      -5.311000     -6.235000     -0.136000
21
Coordinates from ORCA-job FeCP2_plus2_small_opt.orca E -510.123597118715
  Fe     -5.818657     -3.840046     -1.541038
  H      -5.315833     -1.433308     -2.950483
  C      -5.548612     -1.822916     -1.969199
  H      -7.798236     -1.857888     -1.954545
  H      -3.519285     -2.246626     -1.093004
  C      -6.866160     -2.050214     -1.441511
  C      -4.594820     -2.254033     -0.983146
  C      -6.727562     -2.621497     -0.128704
  C      -5.323353     -2.746010      0.154853
  H      -7.536771     -2.934198      0.516442
  H      -4.891114     -3.171578      1.049807
  H      -4.892083     -4.508025     -4.133865
  C      -5.322265     -4.933835     -3.238042
  H      -7.536250     -4.751633     -3.597675
  H      -3.515875     -5.428242     -1.991897
  C      -6.725635     -5.062459     -2.953346
  C      -4.591535     -5.423026     -2.100731
  C      -6.861827     -5.633080     -1.640349
  C      -5.542707     -5.857075     -1.113719
  H      -7.792356     -5.827649     -1.125369
  H      -5.308066     -6.245663     -0.132480
21
Coordinates from ORCA-job FeCP2_plus2_small_opt.orca E -510.124919201569
  Fe     -5.817946     -3.840115     -1.541104
  H      -5.311145     -1.413581     -2.949493
  C      -5.545480     -1.811731     -1.971853
  H      -7.803892     -1.838813     -1.953449
  H      -3.510858     -2.230426     -1.083523
  C      -6.872507     -2.039689     -1.442363
  C      -4.586955     -2.245980     -0.978532
  C      -6.734244     -2.613969     -0.121097
  C      -5.321562     -2.740538      0.165653
  H      -7.544586     -2.917196      0.527356
  H      -4.890750     -3.158000      1.065255
  H      -4.891766     -4.521165     -4.149323
  C      -5.320491     -4.939193     -3.248997
  H      -7.544320     -4.768451     -3.608483
  H      -3.507289     -5.444381     -2.001329
  C      -6.732490     -5.069830     -2.960929
  C      -4.583430     -5.431243     -2.105262
  C      -6.867897     -5.643869     -1.639328
  C      -5.539775     -5.868241     -1.111037
  H      -7.797982     -5.847131     -1.126705
  H      -5.303633     -6.265457     -0.133458
21
Coordinates from ORCA-job FeCP2_plus2_small_opt.orca E -510.125304517942
  Fe     -5.817394     -3.840166     -1.541140
  H      -5.308460     -1.400308     -2.944419
  C      -5.544002     -1.804966     -1.969703
  H      -7.803824     -1.824801     -1.950458
  H      -3.509261     -2.218020     -1.075610
  C      -6.873044     -2.032431     -1.440898
  C      -4.585656     -2.239900     -0.974479
  C      -6.735979     -2.607032     -0.118181
  C      -5.322267     -2.734568      0.170091
  H      -7.547161     -2.903056      0.532620
  H      -4.892641     -3.145684      1.073217
  H      -4.893642     -4.533267     -4.157194
  C      -5.321198     -4.945137     -3.253435
  H      -7.546946     -4.782506     -3.613667
  H      -3.505604     -5.456764     -2.009289
  C      -6.734270     -5.076664     -2.963784
  C      -4.582048     -5.437433     -2.109302
  C      -6.868347     -5.651222     -1.640719
  C      -5.538349     -5.875002     -1.113180
  H      -7.797963     -5.861278     -1.129907
  H      -5.300943     -6.278794     -0.138562
21
Coordinates from ORCA-job FeCP2_plus2_small_opt.orca E -510.125926412511
  Fe     -5.816011     -3.840289     -1.541224
  H      -5.302336     -1.370328     -2.929060
  C      -5.540894     -1.789575     -1.961213
  H      -7.800079     -1.791880     -1.942057
  H      -3.509105     -2.188879     -1.055887
  C      -6.870981     -2.014988     -1.435781
  C      -4.585967     -2.224982     -0.963934
  C      -6.737835     -2.588948     -0.113293
  C      -5.325734     -2.718429      0.178239
  H      -7.551034     -2.868628      0.542339
  H      -4.899240     -3.115094      1.089329
  H      -4.900160     -4.563432     -4.173030
  C      -5.324650     -4.961247     -3.261498
  H      -7.550814     -4.816793     -3.623205
  H      -3.505267     -5.485886     -2.029177
  C      -6.736154     -5.094514     -2.968502
  C      -4.582256     -5.452600     -2.119872
  C      -6.866187     -5.668793     -1.645709
  C      -5.535272     -5.890400     -1.121664
  H      -7.794374     -5.894366     -1.138775
  H      -5.294649     -6.308948     -0.154026
21
Coordinates from ORCA-job FeCP2_plus2_small_opt.orca E -510.126118144532
  Fe     -5.815212     -3.840353     -1.541269
  H      -5.298822     -1.357395     -2.920038
  C      -5.539255     -1.782092     -1.955029
  H      -7.795999     -1.776667     -1.938182
  H      -3.510899     -2.175849     -1.045441
  C      -6.867975     -2.005904     -1.432560
  C      -4.587919     -2.217193     -0.957791
  C      -6.737798     -2.578839     -0.112120
  C      -5.328741     -2.709147      0.181237
  H      -7.552223     -2.852205      0.544697
  H      -4.904169     -3.100318      1.095607
  H      -4.905024     -4.578059     -4.179144
  C      -5.327631     -4.970529     -3.264411
  H      -7.551911     -4.833201     -3.625497
  H      -3.507013     -5.498937     -2.039718
  C      -6.736066     -5.104515     -2.969580
  C      -4.584222     -5.460498     -2.126069
  C      -6.863213     -5.677861     -1.648914
  C      -5.533573     -5.897905     -1.127849
  H      -7.790385     -5.909548     -1.142817
  H      -5.290949     -6.321982     -0.163112
21
Coordinates from ORCA-job FeCP2_plus2_small_opt.orca E -510.126173599348
  Fe     -5.814846     -3.840375     -1.541291
  H      -5.296766     -1.355945     -2.917346
  C      -5.538301     -1.779813     -1.952250
  H      -7.793514     -1.773988     -1.938531
  H      -3.512080     -2.174367     -1.041918
  C      -6.866028     -2.002772     -1.431667
  C      -4.589195     -2.214712     -0.955106
  C      -6.737725     -2.575163     -0.112569
  C      -5.330588     -2.705749      0.181947
  H      -7.552898     -2.849181      0.543054
  H      -4.907005     -3.097736      1.096432
  H      -4.907831     -4.580650     -4.179925
  C      -5.329453     -4.973928     -3.265083
  H      -7.552506     -4.836263     -3.623861
  H      -3.508219     -5.500449     -2.043251
  C      -6.735932     -5.108165     -2.969105
  C      -4.585542     -5.462993     -2.128798
  C      -6.861324     -5.680929     -1.649842
  C      -5.532549     -5.900210     -1.130637
  H      -7.787904     -5.912140     -1.142424
  H      -5.288794     -6.323471     -0.165829
21
Coordinates from ORCA-job FeCP2_plus2_small_opt.orca E -510.126208902849
  Fe     -5.814529     -3.840389     -1.541312
  H      -5.294320     -1.358111     -2.916917
  C      -5.537073     -1.778664     -1.950673
  H      -7.791553     -1.775177     -1.941114
  H      -3.512564     -2.176847     -1.039908
  C      -6.864606     -2.000968     -1.431894
  C      -4.589797     -2.213646     -0.952988
  C      -6.738223     -2.573144     -0.113407
  C      -5.332271     -2.704033      0.182618
  H      -7.554236     -2.850457      0.539789
  H      -4.909701     -3.099366      1.096140
  H      -4.910514     -4.579069     -4.179647
  C      -5.331109     -4.975637     -3.265746
  H      -7.553785     -4.835027     -3.620628
  H      -3.508746     -5.497998     -2.045218
  C      -6.736377     -5.110173     -2.968270
  C      -4.586183     -5.464044     -2.130951
  C      -6.859949     -5.682660     -1.649665
  C      -5.531259     -5.901391     -1.132230
  H      -7.785891     -5.910867     -1.139708
  H      -5.286314     -6.321332     -0.166271
21
Coordinates from ORCA-job FeCP2_plus2_small_opt.orca E -510.126239313425
  Fe     -5.814100     -3.840406     -1.541339
  H      -5.290404     -1.361887     -2.917459
  C      -5.535006     -1.777411     -1.949491
  H      -7.789437     -1.777845     -1.945893
  H      -3.512369     -2.181449     -1.037362
  C      -6.863340     -1.999000     -1.433073
  C      -4.589772     -2.212857     -0.950253
  C      -6.739617     -2.571217     -0.114504
  C      -5.334397     -2.702687      0.184003
  H      -7.556893     -2.853497      0.534996
  H      -4.913402     -3.103141      1.096043
  H      -4.914210     -4.575362     -4.179607
  C      -5.333202     -4.976962     -3.267152
  H      -7.556407     -4.832012     -3.615877
  H      -3.508595     -5.493418     -2.047679
  C      -6.737729     -5.112083     -2.967193
  C      -4.586180     -5.464806     -2.133710
  C      -6.858703     -5.684559     -1.648536
  C      -5.529146     -5.902684     -1.133439
  H      -7.783664     -5.908132     -1.134734
  H      -5.282425     -6.317585     -0.165742
21
Coordinates from ORCA-job FeCP2_plus2_small_opt.orca E -510.126252489775
  Fe     -5.813764     -3.840420     -1.541356
  H      -5.286875     -1.364024     -2.917964
  C      -5.533094     -1.776510     -1.949088
  H      -7.788060     -1.779226     -1.949943
  H      -3.511678     -2.184476     -1.034838
  C      -6.862762     -1.997633     -1.434498
  C      -4.589223     -2.212536     -0.948103
  C      -6.741164     -2.570061     -0.115289
  C      -5.335987     -2.702155      0.185450
  H      -7.559540     -2.855209      0.531594
  H      -4.916449     -3.105759      1.096792
  H      -4.917264     -4.572781     -4.180407
  C      -5.334778     -4.977478     -3.268625
  H      -7.559063     -4.830285     -3.612491
  H      -3.507911     -5.490389     -2.050145
  C      -6.739275     -5.113221     -2.966425
  C      -4.585616     -5.465111     -2.135855
  C      -6.858097     -5.685910     -1.647124
  C      -5.527237     -5.903607     -1.133864
  H      -7.782200     -5.906747     -1.130578
  H      -5.278963     -6.315462     -0.165245
21
Coordinates from ORCA-job FeCP2_plus2_small_opt.orca E -510.126257311878
  Fe     -5.813556     -3.840429     -1.541359
  H      -5.284290     -1.364379     -2.917879
  C      -5.531688     -1.776113     -1.948973
  H      -7.787107     -1.779068     -1.952460
  H      -3.511093     -2.185487     -1.032548
  C      -6.862434     -1.996932     -1.435666
  C      -4.588746     -2.212575     -0.946681
  C      -6.742313     -2.569518     -0.115912
  C      -5.337082     -2.702118      0.186424
  H      -7.561501     -2.855192      0.529725
  H      -4.918681     -3.106578      1.097918
  H      -4.919503     -4.571976     -4.181551
  C      -5.335874     -4.977509     -3.269608
  H      -7.561042     -4.830272     -3.610615
  H      -3.507312     -5.489366     -2.052426
  C      -6.740439     -5.113752     -2.965805
  C      -4.585113     -5.465070     -2.137262
  C      -6.857731     -5.686627     -1.645943
  C      -5.525853     -5.904008     -1.133989
  H      -7.781217     -5.906926     -1.128057
  H      -5.276426     -6.315106     -0.165334
